data_image0
_chemical_formula_structural       Si96O192C11
_chemical_formula_sum              "Si96 O192 C11"
_cell_length_a       20.078
_cell_length_b       19.894
_cell_length_c       13.372
_cell_angle_alpha    90.0
_cell_angle_beta     90.0
_cell_angle_gamma    90.0

_space_group_name_H-M_alt    "P 1"
_space_group_IT_number       1

loop_
  _space_group_symop_operation_xyz
  'x, y, z'

loop_
  _atom_site_type_symbol
  _atom_site_label
  _atom_site_symmetry_multiplicity
  _atom_site_fract_x
  _atom_site_fract_y
  _atom_site_fract_z
  _atom_site_occupancy
  Si  Si1       1.0  0.42443  0.0552  0.6456  1.0000
  Si  Si2       1.0  0.07555999999999999  0.9447899999999999  0.1456  1.0000
  Si  Si3       1.0  0.9244299999999999  0.44479  0.8544000000000003  1.0000
  Si  Si4       1.0  0.92444  0.05521  0.8544000000000003  1.0000
  Si  Si5       1.0  0.07555999999999999  0.5552  0.1456  1.0000
  Si  Si6       1.0  0.42444  0.44479  0.6456  1.0000
  Si  Si7       1.0  0.57557  0.9447899999999999  0.3544000000000001  1.0000
  Si  Si8       1.0  0.5755599999999998  0.55521  0.3544000000000001  1.0000
  Si  Si9       1.0  0.30371  0.02669  0.79053  1.0000
  Si  Si10      1.0  0.1963  0.97331  0.29053  1.0000
  Si  Si11      1.0  0.8037099999999999  0.47331  0.7094700000000002  1.0000
  Si  Si12      1.0  0.8037  0.02669  0.7094700000000002  1.0000
  Si  Si13      1.0  0.1963  0.52669  0.29053  1.0000
  Si  Si14      1.0  0.3037  0.47331  0.79053  1.0000
  Si  Si15      1.0  0.69629  0.97331  0.20947000000000005  1.0000
  Si  Si16      1.0  0.69629  0.5267  0.20947000000000005  1.0000
  Si  Si17      1.0  0.2804499999999999  0.06491  0.01018  1.0000
  Si  Si18      1.0  0.21955  0.93509  0.51017  1.0000
  Si  Si19      1.0  0.7804499999999999  0.43509000000000003  0.48982  1.0000
  Si  Si20      1.0  0.7804499999999999  0.06491  0.48982  1.0000
  Si  Si21      1.0  0.21955  0.56491  0.51018  1.0000
  Si  Si22      1.0  0.2804499999999999  0.43509000000000003  0.01018  1.0000
  Si  Si23      1.0  0.71955  0.93509  0.98982  1.0000
  Si  Si24      1.0  0.71955  0.56491  0.98982  1.0000
  Si  Si25      1.0  0.12117  0.06687  0.01071  1.0000
  Si  Si26      1.0  0.37884  0.9331300000000001  0.51071  1.0000
  Si  Si27      1.0  0.62117  0.43313000000000007  0.4892900000000001  1.0000
  Si  Si28      1.0  0.62116  0.06687  0.4892900000000001  1.0000
  Si  Si29      1.0  0.37884  0.56687  0.51071  1.0000
  Si  Si30      1.0  0.12115999999999998  0.43313000000000007  0.01071  1.0000
  Si  Si31      1.0  0.87883  0.9331300000000001  0.9892900000000002  1.0000
  Si  Si32      1.0  0.87883  0.56687  0.9892800000000003  1.0000
  Si  Si33      1.0  0.06996  0.029390000000000003  0.79997  1.0000
  Si  Si34      1.0  0.43004999999999993  0.97061  0.29997000000000007  1.0000
  Si  Si35      1.0  0.56996  0.47061  0.7000300000000002  1.0000
  Si  Si36      1.0  0.56995  0.029390000000000003  0.7000300000000002  1.0000
  Si  Si37      1.0  0.43004999999999993  0.52939  0.29998000000000014  1.0000
  Si  Si38      1.0  0.06995  0.47061  0.79997  1.0000
  Si  Si39      1.0  0.9300399999999999  0.97061  0.20003000000000004  1.0000
  Si  Si40      1.0  0.9300399999999999  0.52939  0.20003000000000004  1.0000
  Si  Si41      1.0  0.17968  0.05282  0.65024  1.0000
  Si  Si42      1.0  0.32032  0.94718  0.15025  1.0000
  Si  Si43      1.0  0.67969  0.44718  0.84976  1.0000
  Si  Si44      1.0  0.67969  0.05282  0.84975  1.0000
  Si  Si45      1.0  0.32032  0.55282  0.15024000000000004  1.0000
  Si  Si46      1.0  0.17968999999999993  0.44718  0.65024  1.0000
  Si  Si47      1.0  0.82032  0.94718  0.34976  1.0000
  Si  Si48      1.0  0.82031  0.55282  0.34976  1.0000
  Si  Si49      1.0  0.42122999999999994  0.82745  0.66737  1.0000
  Si  Si50      1.0  0.07878  0.17255  0.16737  1.0000
  Si  Si51      1.0  0.92123  0.6725500000000001  0.8326300000000001  1.0000
  Si  Si52      1.0  0.92122  0.82745  0.8326300000000001  1.0000
  Si  Si53      1.0  0.07877  0.32745  0.16737  1.0000
  Si  Si54      1.0  0.42122999999999994  0.6725500000000001  0.66737  1.0000
  Si  Si55      1.0  0.57877  0.17255  0.33263  1.0000
  Si  Si56      1.0  0.57877  0.32745  0.33263  1.0000
  Si  Si57      1.0  0.30328  0.8693800000000002  0.80892  1.0000
  Si  Si58      1.0  0.19671999999999998  0.13062  0.30893  1.0000
  Si  Si59      1.0  0.8032799999999999  0.63062  0.69108  1.0000
  Si  Si60      1.0  0.8032799999999999  0.8693800000000002  0.69108  1.0000
  Si  Si61      1.0  0.19671999999999998  0.36938  0.30892  1.0000
  Si  Si62      1.0  0.30328  0.63062  0.80892  1.0000
  Si  Si63      1.0  0.69672  0.13062  0.19108  1.0000
  Si  Si64      1.0  0.69672  0.36938  0.19107000000000002  1.0000
  Si  Si65      1.0  0.26642999999999994  0.8280200000000001  0.026660000000000003  1.0000
  Si  Si66      1.0  0.23357  0.17197  0.52666  1.0000
  Si  Si67      1.0  0.76643  0.67198  0.47334  1.0000
  Si  Si68      1.0  0.76643  0.8280200000000001  0.47334  1.0000
  Si  Si69      1.0  0.23357  0.32802000000000003  0.52666  1.0000
  Si  Si70      1.0  0.26642999999999994  0.67198  0.026660000000000003  1.0000
  Si  Si71      1.0  0.7335699999999998  0.17197  0.9733400000000001  1.0000
  Si  Si72      1.0  0.7335699999999998  0.32802000000000003  0.9733400000000001  1.0000
  Si  Si73      1.0  0.11247  0.82666  0.01352  1.0000
  Si  Si74      1.0  0.38752999999999993  0.17334000000000002  0.51352  1.0000
  Si  Si75      1.0  0.61247  0.6733400000000002  0.48648  1.0000
  Si  Si76      1.0  0.61247  0.82666  0.48648  1.0000
  Si  Si77      1.0  0.38752999999999993  0.32666  0.51351  1.0000
  Si  Si78      1.0  0.11247  0.6733400000000002  0.01352  1.0000
  Si  Si79      1.0  0.8875299999999999  0.17334000000000002  0.98649  1.0000
  Si  Si80      1.0  0.8875299999999999  0.32666  0.98648  1.0000
  Si  Si81      1.0  0.06469  0.8718500000000001  0.8012400000000001  1.0000
  Si  Si82      1.0  0.43531  0.12815  0.30124  1.0000
  Si  Si83      1.0  0.56469  0.62815  0.69876  1.0000
  Si  Si84      1.0  0.56469  0.8718500000000001  0.69875  1.0000
  Si  Si85      1.0  0.43531  0.37185  0.30124  1.0000
  Si  Si86      1.0  0.06469  0.62815  0.8012400000000001  1.0000
  Si  Si87      1.0  0.93531  0.12815  0.19876  1.0000
  Si  Si88      1.0  0.93531  0.37185  0.19876  1.0000
  Si  Si89      1.0  0.18175  0.8295700000000001  0.67144  1.0000
  Si  Si90      1.0  0.31825  0.17043  0.17145000000000002  1.0000
  Si  Si91      1.0  0.68175  0.67043  0.8285600000000002  1.0000
  Si  Si92      1.0  0.68175  0.8295700000000001  0.8285500000000001  1.0000
  Si  Si93      1.0  0.31825  0.32957000000000003  0.17145000000000002  1.0000
  Si  Si94      1.0  0.18175  0.67043  0.67145  1.0000
  Si  Si95      1.0  0.81825  0.17043  0.32855  1.0000
  Si  Si96      1.0  0.81825  0.32957000000000003  0.32856  1.0000
  O   O1        1.0  0.49081999999999987  0.0437  0.71238  1.0000
  O   O2        1.0  0.00918  0.9563  0.21238  1.0000
  O   O3        1.0  0.99081  0.4563  0.7876200000000002  1.0000
  O   O4        1.0  0.99082  0.0437  0.7876200000000002  1.0000
  O   O5        1.0  0.00918  0.5437  0.21238  1.0000
  O   O6        1.0  0.49081999999999987  0.4563  0.71238  1.0000
  O   O7        1.0  0.50919  0.9563  0.28762  1.0000
  O   O8        1.0  0.50918  0.5437  0.28762  1.0000
  O   O9        1.0  0.36007  0.058910000000000004  0.71842  1.0000
  O   O10       1.0  0.13994  0.9410900000000001  0.21842  1.0000
  O   O11       1.0  0.86007  0.44109  0.7815800000000002  1.0000
  O   O12       1.0  0.86007  0.058910000000000004  0.7815800000000002  1.0000
  O   O13       1.0  0.13994  0.55891  0.21842  1.0000
  O   O14       1.0  0.36005999999999994  0.44109  0.71842  1.0000
  O   O15       1.0  0.63993  0.9410900000000001  0.28158  1.0000
  O   O16       1.0  0.63994  0.55891  0.28158  1.0000
  O   O17       1.0  0.43219  0.12577000000000002  0.58555  1.0000
  O   O18       1.0  0.06781  0.87423  0.08554  1.0000
  O   O19       1.0  0.9322  0.37423  0.9144600000000003  1.0000
  O   O20       1.0  0.93219  0.12577000000000002  0.9144600000000003  1.0000
  O   O21       1.0  0.06781  0.62577  0.08555  1.0000
  O   O22       1.0  0.43219  0.37423  0.58554  1.0000
  O   O23       1.0  0.56781  0.87423  0.4144500000000001  1.0000
  O   O24       1.0  0.56781  0.62577  0.4144600000000001  1.0000
  O   O25       1.0  0.4179899999999999  0.9947500000000001  0.56438  1.0000
  O   O26       1.0  0.08200999999999999  0.00525  0.06436  1.0000
  O   O27       1.0  0.91799  0.5052500000000001  0.93563  1.0000
  O   O28       1.0  0.91799  0.9947500000000001  0.93563  1.0000
  O   O29       1.0  0.08200999999999999  0.49475  0.06437  1.0000
  O   O30       1.0  0.4179899999999999  0.5052500000000001  0.56437  1.0000
  O   O31       1.0  0.58202  0.00525  0.43563  1.0000
  O   O32       1.0  0.58201  0.49475  0.43563  1.0000
  O   O33       1.0  0.30067  0.07043  0.89302  1.0000
  O   O34       1.0  0.19932999999999998  0.92958  0.3930100000000001  1.0000
  O   O35       1.0  0.8006699999999999  0.42957  0.6069800000000001  1.0000
  O   O36       1.0  0.8006699999999999  0.07043  0.6069800000000001  1.0000
  O   O37       1.0  0.19932999999999998  0.57043  0.3930100000000001  1.0000
  O   O38       1.0  0.30066  0.42957  0.89301  1.0000
  O   O39       1.0  0.69933  0.92958  0.10698  1.0000
  O   O40       1.0  0.69933  0.57043  0.10698  1.0000
  O   O41       1.0  0.32168  0.9487799999999998  0.81488  1.0000
  O   O42       1.0  0.17831  0.05122000000000001  0.31488  1.0000
  O   O43       1.0  0.8216899999999999  0.55123  0.6851200000000001  1.0000
  O   O44       1.0  0.8216899999999999  0.94877  0.6851200000000001  1.0000
  O   O45       1.0  0.17831  0.44877000000000006  0.31488  1.0000
  O   O46       1.0  0.3216899999999999  0.55122  0.81488  1.0000
  O   O47       1.0  0.67831  0.05122000000000001  0.18512  1.0000
  O   O48       1.0  0.67831  0.44878000000000007  0.18512  1.0000
  O   O49       1.0  0.23147999999999996  0.029250000000000005  0.73662  1.0000
  O   O50       1.0  0.26852  0.9707500000000001  0.23662  1.0000
  O   O51       1.0  0.7314799999999998  0.47075  0.7633800000000002  1.0000
  O   O52       1.0  0.7314799999999998  0.029250000000000005  0.7633800000000002  1.0000
  O   O53       1.0  0.26852  0.52925  0.23662  1.0000
  O   O54       1.0  0.23147999999999996  0.47075  0.73662  1.0000
  O   O55       1.0  0.76852  0.97074  0.26338000000000006  1.0000
  O   O56       1.0  0.76852  0.52925  0.26338000000000006  1.0000
  O   O57       1.0  0.30362999999999996  0.13371  0.06528  1.0000
  O   O58       1.0  0.19636999999999996  0.86629  0.56528  1.0000
  O   O59       1.0  0.8036199999999999  0.36629000000000006  0.43472  1.0000
  O   O60       1.0  0.80363  0.13371  0.43472  1.0000
  O   O61       1.0  0.19636999999999996  0.63371  0.56528  1.0000
  O   O62       1.0  0.30362999999999996  0.36629000000000006  0.06528  1.0000
  O   O63       1.0  0.69637  0.86629  0.93472  1.0000
  O   O64       1.0  0.69637  0.63371  0.93472  1.0000
  O   O65       1.0  0.20061  0.05479  0.02396  1.0000
  O   O66       1.0  0.29938999999999993  0.9452100000000001  0.52396  1.0000
  O   O67       1.0  0.70061  0.44521  0.4760400000000001  1.0000
  O   O68       1.0  0.70061  0.05480000000000001  0.4760400000000001  1.0000
  O   O69       1.0  0.29938999999999993  0.55479  0.52396  1.0000
  O   O70       1.0  0.20061  0.44521  0.02396  1.0000
  O   O71       1.0  0.7993899999999999  0.9452100000000001  0.97604  1.0000
  O   O72       1.0  0.7993899999999999  0.5548  0.97604  1.0000
  O   O73       1.0  0.31783999999999996  0.9997500000000001  0.05732  1.0000
  O   O74       1.0  0.18217  0.00025  0.55731  1.0000
  O   O75       1.0  0.81783  0.50025  0.44268  1.0000
  O   O76       1.0  0.81783  0.9997500000000001  0.44268  1.0000
  O   O77       1.0  0.18217  0.49975  0.55732  1.0000
  O   O78       1.0  0.31783  0.50025  0.05732  1.0000
  O   O79       1.0  0.68217  0.00025  0.94268  1.0000
  O   O80       1.0  0.68217  0.49975  0.94268  1.0000
  O   O81       1.0  0.09903  0.13722  0.06216  1.0000
  O   O82       1.0  0.40097  0.8627800000000001  0.56215  1.0000
  O   O83       1.0  0.5990299999999998  0.36278  0.43785  1.0000
  O   O84       1.0  0.5990299999999998  0.13722  0.43785  1.0000
  O   O85       1.0  0.40097  0.6372200000000001  0.56216  1.0000
  O   O86       1.0  0.09903  0.36278  0.06216  1.0000
  O   O87       1.0  0.90097  0.8627800000000001  0.93784  1.0000
  O   O88       1.0  0.90097  0.6372200000000001  0.93784  1.0000
  O   O89       1.0  0.1012  0.07105  0.8935300000000003  1.0000
  O   O90       1.0  0.39881  0.92895  0.3935300000000001  1.0000
  O   O91       1.0  0.6011999999999998  0.42895000000000005  0.60647  1.0000
  O   O92       1.0  0.60119  0.07105  0.60647  1.0000
  O   O93       1.0  0.39881  0.57105  0.3935300000000001  1.0000
  O   O94       1.0  0.10119  0.42894  0.8935300000000003  1.0000
  O   O95       1.0  0.8987999999999999  0.92895  0.10647000000000002  1.0000
  O   O96       1.0  0.89881  0.57105  0.10647000000000002  1.0000
  O   O97       1.0  0.10507  0.05335  0.69677  1.0000
  O   O98       1.0  0.39493  0.94664  0.19677  1.0000
  O   O99       1.0  0.60507  0.44665  0.80323  1.0000
  O   O100      1.0  0.60507  0.05335  0.80323  1.0000
  O   O101      1.0  0.39493  0.55335  0.19677  1.0000
  O   O102      1.0  0.10507  0.44665  0.69676  1.0000
  O   O103      1.0  0.8949299999999999  0.94665  0.30323  1.0000
  O   O104      1.0  0.8949299999999999  0.55335  0.30323  1.0000
  O   O105      1.0  0.08384999999999998  0.95003  0.81988  1.0000
  O   O106      1.0  0.41616  0.04998  0.3198800000000001  1.0000
  O   O107      1.0  0.58384  0.54997  0.6801200000000002  1.0000
  O   O108      1.0  0.58384  0.95002  0.6801200000000002  1.0000
  O   O109      1.0  0.41616  0.45003000000000004  0.3198800000000001  1.0000
  O   O110      1.0  0.08384  0.54998  0.81988  1.0000
  O   O111      1.0  0.91616  0.04997000000000001  0.18013000000000007  1.0000
  O   O112      1.0  0.91616  0.45002  0.18012  1.0000
  O   O113      1.0  0.19673999999999994  0.12811  0.61214  1.0000
  O   O114      1.0  0.30326  0.8719000000000001  0.11214  1.0000
  O   O115      1.0  0.69675  0.3719  0.88786  1.0000
  O   O116      1.0  0.69675  0.1281  0.88786  1.0000
  O   O117      1.0  0.30325  0.6281000000000001  0.11214  1.0000
  O   O118      1.0  0.19675  0.3719  0.61214  1.0000
  O   O119      1.0  0.8032599999999999  0.8719000000000001  0.38787  1.0000
  O   O120      1.0  0.80325  0.6281000000000001  0.38786  1.0000
  O   O121      1.0  0.48503999999999997  0.8647  0.71851  1.0000
  O   O122      1.0  0.01497  0.1353  0.21852  1.0000
  O   O123      1.0  0.98504  0.6353  0.7814800000000002  1.0000
  O   O124      1.0  0.9850299999999999  0.8647  0.7814800000000002  1.0000
  O   O125      1.0  0.01496  0.3647  0.21852  1.0000
  O   O126      1.0  0.48502999999999996  0.6353  0.71852  1.0000
  O   O127      1.0  0.51496  0.1353  0.28148  1.0000
  O   O128      1.0  0.51497  0.3647  0.28148  1.0000
  O   O129      1.0  0.35906999999999994  0.8302300000000001  0.74421  1.0000
  O   O130      1.0  0.14092999999999997  0.16978  0.24421  1.0000
  O   O131      1.0  0.8590599999999999  0.66978  0.75579  1.0000
  O   O132      1.0  0.8590699999999998  0.8302300000000001  0.75579  1.0000
  O   O133      1.0  0.14092999999999997  0.3302300000000001  0.24421  1.0000
  O   O134      1.0  0.35906999999999994  0.66977  0.74421  1.0000
  O   O135      1.0  0.6409399999999998  0.16977  0.2557900000000001  1.0000
  O   O136      1.0  0.64093  0.3302300000000001  0.2557900000000001  1.0000
  O   O137      1.0  0.43975999999999993  0.75  0.64335  1.0000
  O   O138      1.0  0.06024  0.25  0.14335  1.0000
  O   O139      1.0  0.93976  0.75  0.8566400000000001  1.0000
  O   O140      1.0  0.56024  0.25  0.35665  1.0000
  O   O141      1.0  0.3038  0.83737  0.9201  1.0000
  O   O142      1.0  0.1962  0.16263  0.42011  1.0000
  O   O143      1.0  0.8037999999999998  0.66263  0.57989  1.0000
  O   O144      1.0  0.8037999999999998  0.83737  0.57989  1.0000
  O   O145      1.0  0.1962  0.33737  0.4201  1.0000
  O   O146      1.0  0.3038  0.66263  0.9201100000000001  1.0000
  O   O147      1.0  0.6962  0.16263  0.0799  1.0000
  O   O148      1.0  0.6962  0.33737  0.07989  1.0000
  O   O149      1.0  0.23016  0.85951  0.75854  1.0000
  O   O150      1.0  0.26984  0.14049  0.25854  1.0000
  O   O151      1.0  0.73016  0.64049  0.74146  1.0000
  O   O152      1.0  0.73016  0.85951  0.74146  1.0000
  O   O153      1.0  0.26984  0.35952  0.25854  1.0000
  O   O154      1.0  0.23016  0.64049  0.75854  1.0000
  O   O155      1.0  0.7698399999999999  0.14049  0.24146000000000004  1.0000
  O   O156      1.0  0.7698399999999999  0.35951  0.24146000000000004  1.0000
  O   O157      1.0  0.26984  0.75  0.06082000000000001  1.0000
  O   O158      1.0  0.23016  0.25  0.5608200000000001  1.0000
  O   O159      1.0  0.76985  0.75  0.43918  1.0000
  O   O160      1.0  0.73016  0.25  0.93918  1.0000
  O   O161      1.0  0.18937999999999997  0.85283  0.01614  1.0000
  O   O162      1.0  0.31061  0.14717  0.51614  1.0000
  O   O163      1.0  0.68939  0.64717  0.48386  1.0000
  O   O164      1.0  0.68939  0.85283  0.48386  1.0000
  O   O165      1.0  0.31061  0.35283  0.51614  1.0000
  O   O166      1.0  0.18938999999999995  0.64717  0.01614  1.0000
  O   O167      1.0  0.81061  0.14717  0.98386  1.0000
  O   O168      1.0  0.81061  0.35283  0.98386  1.0000
  O   O169      1.0  0.10736  0.75  0.054160000000000014  1.0000
  O   O170      1.0  0.39263  0.25  0.55416  1.0000
  O   O171      1.0  0.60737  0.75  0.44584000000000007  1.0000
  O   O172      1.0  0.89263  0.25  0.9458400000000002  1.0000
  O   O173      1.0  0.08518  0.82879  0.89957  1.0000
  O   O174      1.0  0.41482  0.17121  0.39957  1.0000
  O   O175      1.0  0.58518  0.67121  0.60043  1.0000
  O   O176      1.0  0.58519  0.82879  0.60043  1.0000
  O   O177      1.0  0.41482  0.3287900000000001  0.39957  1.0000
  O   O178      1.0  0.08518  0.67121  0.89957  1.0000
  O   O179      1.0  0.91482  0.17121  0.10043000000000003  1.0000
  O   O180      1.0  0.91482  0.3287900000000001  0.10043000000000003  1.0000
  O   O181      1.0  0.10478  0.84291  0.7045700000000001  1.0000
  O   O182      1.0  0.39522  0.15709  0.20458000000000004  1.0000
  O   O183      1.0  0.60478  0.65709  0.79543  1.0000
  O   O184      1.0  0.60478  0.84291  0.79542  1.0000
  O   O185      1.0  0.39522  0.34291  0.20457  1.0000
  O   O186      1.0  0.10478  0.65709  0.7045800000000002  1.0000
  O   O187      1.0  0.8952199999999999  0.15709  0.2954300000000001  1.0000
  O   O188      1.0  0.8952199999999999  0.34291  0.29542  1.0000
  O   O189      1.0  0.19514  0.75  0.6566900000000001  1.0000
  O   O190      1.0  0.30486  0.25  0.15670000000000006  1.0000
  O   O191      1.0  0.69514  0.75  0.84331  1.0000
  O   O192      1.0  0.8048599999999999  0.25  0.34330000000000005  1.0000
  C   C1        1.0  0.7142145632035063  0.2524379209812004  0.6387227041579417  1.0000
  C   C2        1.0  0.6612212371750175  0.1979491303910727  0.6197277894107089  1.0000
  C   C3        1.0  0.7839426237673075  0.22293153714687847  0.6192043075082263  1.0000
  C   C4        1.0  0.8338977985855164  0.27138835829898467  0.6685611725994614  1.0000
  C   C5        1.0  0.9068134276322343  0.2536945812807882  0.6443314388274008  1.0000
  C   C6        1.0  0.9230999103496363  0.2548004423444255  0.5318576129225248  1.0000
  C   C7        1.0  0.9915330212172527  0.22383633256258173  0.5074783128926117  1.0000
  C   C8        1.0  0.5945811335790417  0.2139841158138132  0.6714777146275801  1.0000
  C   C9        1.0  0.5917422053989441  0.22831004322911433  0.7845498055638651  1.0000
  C   C10       1.0  0.522811036955872  0.23283402030763045  0.8345049356865091  1.0000
  C   C11       1.0  0.548211973304114  0.2628430682617875  0.6153903679329944  1.0000
