# generated using pymatgen
data_AlSi35HO72
_symmetry_space_group_name_H-M   'P 1'
_cell_length_a   13.82580000
_cell_length_b   13.82580000
_cell_length_c   14.88130000
_cell_angle_alpha   90.00000000
_cell_angle_beta   90.00000000
_cell_angle_gamma   120.00000000
_symmetry_Int_Tables_number   1
_chemical_formula_structural   AlSi35HO72
_chemical_formula_sum   'Al1 Si35 H1 O72'
_cell_volume   2463.49703594
_cell_formula_units_Z   1
loop_
 _symmetry_equiv_pos_site_id
 _symmetry_equiv_pos_as_xyz
  1  'x, y, z'
loop_
 _atom_site_type_symbol
 _atom_site_label
 _atom_site_symmetry_multiplicity
 _atom_site_fract_x
 _atom_site_fract_y
 _atom_site_fract_z
 _atom_site_occupancy
  Al  Al  1  0.43746000  0.33086000  0.43941000  1.0
  Si  Si  1  0.99869000  0.22699000  0.10596000  1.0
  Si  Si  1  0.66536000  0.56032000  0.43930000  1.0
  Si  Si  1  0.33203000  0.89365000  0.77263000  1.0
  Si  Si  1  0.77301000  0.77171000  0.10596000  1.0
  Si  Si  1  0.43968000  0.10504000  0.43930000  1.0
  Si  Si  1  0.10635000  0.43837000  0.77263000  1.0
  Si  Si  1  0.22829000  0.00131000  0.10596000  1.0
  Si  Si  1  0.89496000  0.33464000  0.43930000  1.0
  Si  Si  1  0.56163000  0.66797000  0.77263000  1.0
  Si  Si  1  0.77079000  0.99753000  0.10608000  1.0
  Si  Si  1  0.10413000  0.66419000  0.77275000  1.0
  Si  Si  1  0.22673000  0.22921000  0.10608000  1.0
  Si  Si  1  0.89340000  0.56254000  0.43941000  1.0
  Si  Si  1  0.56007000  0.89587000  0.77275000  1.0
  Si  Si  1  0.00247000  0.77327000  0.10608000  1.0
  Si  Si  1  0.66914000  0.10660000  0.43941000  1.0
  Si  Si  1  0.33581000  0.43993000  0.77275000  1.0
  Si  Si  1  0.00129000  0.77301000  0.89405000  1.0
  Si  Si  1  0.66795000  0.10635000  0.22739000  1.0
  Si  Si  1  0.33462000  0.43968000  0.56072000  1.0
  Si  Si  1  0.22699000  0.22827000  0.89405000  1.0
  Si  Si  1  0.89365000  0.56161000  0.22739000  1.0
  Si  Si  1  0.56032000  0.89494000  0.56072000  1.0
  Si  Si  1  0.77173000  0.99871000  0.89405000  1.0
  Si  Si  1  0.43839000  0.33205000  0.22739000  1.0
  Si  Si  1  0.10506000  0.66538000  0.56072000  1.0
  Si  Si  1  0.22920000  0.00246000  0.89395000  1.0
  Si  Si  1  0.89587000  0.33579000  0.22728000  1.0
  Si  Si  1  0.56253000  0.66912000  0.56062000  1.0
  Si  Si  1  0.77326000  0.77080000  0.89395000  1.0
  Si  Si  1  0.43992000  0.10413000  0.22728000  1.0
  Si  Si  1  0.10659000  0.43747000  0.56062000  1.0
  Si  Si  1  0.99754000  0.22674000  0.89395000  1.0
  Si  Si  1  0.66421000  0.56008000  0.22728000  1.0
  Si  Si  1  0.33088000  0.89341000  0.56062000  1.0
  H  Z0  1  0.51615000  0.25436000  0.48830000  1.0
  O  O  1  0.90009000  0.09680000  0.12493000  1.0
  O  Z1  1  0.56676000  0.43013000  0.45826000  1.0
  O  O  1  0.23342000  0.76346000  0.79160000  1.0
  O  O  1  0.90320000  0.80330000  0.12493000  1.0
  O  O  1  0.56987000  0.13663000  0.45826000  1.0
  O  O  1  0.23654000  0.46996000  0.79160000  1.0
  O  O  1  0.19670000  0.09991000  0.12493000  1.0
  O  O  1  0.86337000  0.43324000  0.45826000  1.0
  O  O  1  0.53004000  0.76658000  0.79160000  1.0
  O  O  1  0.09991000  0.90320000  0.87505000  1.0
  O  O  1  0.76658000  0.23653000  0.20839000  1.0
  O  O  1  0.43325000  0.56987000  0.54172000  1.0
  O  O  1  0.09680000  0.19671000  0.87505000  1.0
  O  O  1  0.76347000  0.53004000  0.20839000  1.0
  O  O  1  0.43013000  0.86338000  0.54172000  1.0
  O  O  1  0.80329000  0.90009000  0.87505000  1.0
  O  O  1  0.46996000  0.23342000  0.20839000  1.0
  O  O  1  0.13662000  0.56675000  0.54172000  1.0
  O  O  1  0.98313000  0.31651000  0.16667000  1.0
  O  O  1  0.64980000  0.64984000  0.50001000  1.0
  O  O  1  0.31646000  0.98318000  0.83334000  1.0
  O  O  1  0.68349000  0.66666667  0.16667000  1.0
  O  O  1  0.35016000  0.99995000  0.50001000  1.0
  O  O  1  0.01682000  0.33329000  0.83334000  1.0
  O  O  1  0.33338000  0.01687000  0.16667000  1.0
  O  O  1  0.00005000  0.35020000  0.50001000  1.0
  O  O  1  0.66666667  0.68354000  0.83334000  1.0
  O  O  1  0.68354000  0.01682000  0.16667000  1.0
  O  O  1  0.35020000  0.35016000  0.50000000  1.0
  O  O  1  0.01687000  0.68349000  0.83333000  1.0
  O  O  1  0.33329000  0.31646000  0.16667000  1.0
  O  O  1  0.99995000  0.64980000  0.50000000  1.0
  O  O  1  0.66666667  0.98313000  0.83333000  1.0
  O  O  1  0.98318000  0.66666667  0.16667000  1.0
  O  O  1  0.64984000  0.00005000  0.50000000  1.0
  O  O  1  0.31651000  0.33338000  0.83333000  1.0
  O  O  1  0.12002000  0.24319000  0.13394000  1.0
  O  O  1  0.78668000  0.57652000  0.46727000  1.0
  O  O  1  0.45335000  0.90986000  0.80061000  1.0
  O  O  1  0.75681000  0.87683000  0.13394000  1.0
  O  O  1  0.42348000  0.21016000  0.46727000  1.0
  O  O  1  0.09014000  0.54349000  0.80061000  1.0
  O  O  1  0.12317000  0.87998000  0.13394000  1.0
  O  O  1  0.78984000  0.21332000  0.46727000  1.0
  O  O  1  0.45651000  0.54665000  0.80061000  1.0
  O  O  1  0.87997000  0.75679000  0.86608000  1.0
  O  O  1  0.54664000  0.09013000  0.19942000  1.0
  O  O  1  0.21330000  0.42346000  0.53275000  1.0
  O  O  1  0.24321000  0.12317000  0.86608000  1.0
  O  O  1  0.90987000  0.45651000  0.19942000  1.0
  O  O  1  0.57654000  0.78984000  0.53275000  1.0
  O  O  1  0.87683000  0.12003000  0.86608000  1.0
  O  O  1  0.54349000  0.45336000  0.19942000  1.0
  O  O  1  0.21016000  0.78670000  0.53275000  1.0
  O  O  1  0.99991000  0.25982000  0.00000000  1.0
  O  O  1  0.66658000  0.59316000  0.33333333  1.0
  O  O  1  0.33324000  0.92649000  0.66666667  1.0
  O  O  1  0.74018000  0.74008000  0.00000000  1.0
  O  O  1  0.40684000  0.07342000  0.33333333  1.0
  O  O  1  0.07351000  0.40675000  0.66666667  1.0
  O  O  1  0.25992000  0.00009000  0.00000000  1.0
  O  O  1  0.92658000  0.33342000  0.33333333  1.0
  O  O  1  0.59325000  0.66676000  0.66666667  1.0
  O  O  1  0.74008000  0.99991000  0.00001000  1.0
  O  O  1  0.40675000  0.33324000  0.33333333  1.0
  O  O  1  0.07342000  0.66658000  0.66666667  1.0
  O  O  1  0.25983000  0.25992000  0.00001000  1.0
  O  O  1  0.92649000  0.59325000  0.33333333  1.0
  O  O  1  0.59316000  0.92658000  0.66666667  1.0
  O  O  1  0.00009000  0.74017000  0.00001000  1.0
  O  O  1  0.66676000  0.07351000  0.33333333  1.0
  O  O  1  0.33342000  0.40684000  0.66666667  1.0
