data_image0
_chemical_formula_structural       O72Si35AlH
_chemical_formula_sum              "O72 Si35 Al1 H1"
_cell_length_a       13.7295
_cell_length_b       13.7502
_cell_length_c       14.8365
_cell_angle_alpha    89.8245
_cell_angle_beta     90.0857
_cell_angle_gamma    120.192

_space_group_name_H-M_alt    "P 1"
_space_group_IT_number       1

loop_
  _space_group_symop_operation_xyz
  'x, y, z'

loop_
  _atom_site_type_symbol
  _atom_site_label
  _atom_site_symmetry_multiplicity
  _atom_site_fract_x
  _atom_site_fract_y
  _atom_site_fract_z
  _atom_site_occupancy
  O   O1        1.0  0.90124  0.09765  0.12482  1.0000
  O   O2        1.0  0.57261  0.43751  0.45929  1.0000
  O   O3        1.0  0.23344  0.76682  0.78734  1.0000
  O   O4        1.0  0.90333  0.80559  0.12321  1.0000
  O   O5        1.0  0.56773  0.12202  0.45323  1.0000
  O   O6        1.0  0.23276  0.47155  0.79531  1.0000
  O   O7        1.0  0.19793  0.09824  0.12649  1.0000
  O   O8        1.0  0.86109  0.43213  0.45737  1.0000
  O   O9        1.0  0.52852  0.76419  0.78800  1.0000
  O   O10       1.0  0.09841  0.90191  0.87641  1.0000
  O   O11       1.0  0.76504  0.23426  0.21089  1.0000
  O   O12       1.0  0.43266  0.56217  0.53889  1.0000
  O   O13       1.0  0.09432  0.19515  0.86919  1.0000
  O   O14       1.0  0.76496  0.52952  0.21193  1.0000
  O   O15       1.0  0.43618  0.87019  0.53949  1.0000
  O   O16       1.0  0.80420  0.90309  0.87492  1.0000
  O   O17       1.0  0.47494  0.23653  0.19669  1.0000
  O   O18       1.0  0.13492  0.56902  0.54674  1.0000
  O   O19       1.0  0.98064  0.31346  0.16649  1.0000
  O   O20       1.0  0.65289  0.65400  0.50073  1.0000
  O   O21       1.0  0.31458  0.98203  0.83271  1.0000
  O   O22       1.0  0.68735  0.66630  0.16601  1.0000
  O   O23       1.0  0.34856  0.99727  0.49606  1.0000
  O   O24       1.0  0.01619  0.33547  0.83639  1.0000
  O   O25       1.0  0.33473  0.01794  0.16609  1.0000
  O   O26       1.0  0.99810  0.35420  0.50212  1.0000
  O   O27       1.0  0.66602  0.68707  0.83347  1.0000
  O   O28       1.0  0.68430  0.01866  0.16387  1.0000
  O   O29       1.0  0.33759  0.34079  0.50591  1.0000
  O   O30       1.0  0.01777  0.68631  0.83361  1.0000
  O   O31       1.0  0.33905  0.31744  0.15576  1.0000
  O   O32       1.0  0.00233  0.64959  0.49797  1.0000
  O   O33       1.0  0.66477  0.97937  0.83373  1.0000
  O   O34       1.0  0.98048  0.66674  0.16600  1.0000
  O   O35       1.0  0.65577  0.99661  0.50047  1.0000
  O   O36       1.0  0.31232  0.33369  0.83383  1.0000
  O   O37       1.0  0.12041  0.23904  0.13638  1.0000
  O   O38       1.0  0.79159  0.58021  0.46477  1.0000
  O   O39       1.0  0.45210  0.90582  0.79955  1.0000
  O   O40       1.0  0.75946  0.87935  0.13377  1.0000
  O   O41       1.0  0.45310  0.21879  0.47746  1.0000
  O   O42       1.0  0.09151  0.54821  0.79900  1.0000
  O   O43       1.0  0.12167  0.87965  0.13145  1.0000
  O   O44       1.0  0.78663  0.21399  0.46579  1.0000
  O   O45       1.0  0.45145  0.54704  0.80410  1.0000
  O   O46       1.0  0.87953  0.76093  0.86665  1.0000
  O   O47       1.0  0.54619  0.08977  0.20859  1.0000
  O   O48       1.0  0.21217  0.43088  0.53502  1.0000
  O   O49       1.0  0.23826  0.11964  0.86264  1.0000
  O   O50       1.0  0.90638  0.45288  0.19866  1.0000
  O   O51       1.0  0.56747  0.78185  0.53740  1.0000
  O   O52       1.0  0.87707  0.12134  0.86693  1.0000
  O   O53       1.0  0.54730  0.45431  0.20261  1.0000
  O   O54       1.0  0.21483  0.78642  0.53604  1.0000
  O   O55       1.0  0.00303  0.25759  0.00047  1.0000
  O   O56       1.0  0.66907  0.59844  0.33376  1.0000
  O   O57       1.0  0.33783  0.93163  0.66544  1.0000
  O   O58       1.0  0.74068  0.74191  0.99986  1.0000
  O   O59       1.0  0.40497  0.08664  0.33203  1.0000
  O   O60       1.0  0.07156  0.40551  0.66916  1.0000
  O   O61       1.0  0.26144  0.00470  0.99912  1.0000
  O   O62       1.0  0.92772  0.33599  0.33366  1.0000
  O   O63       1.0  0.58911  0.66022  0.66740  1.0000
  O   O64       1.0  0.73986  0.99835  0.99973  1.0000
  O   O65       1.0  0.39716  0.31355  0.32475  1.0000
  O   O66       1.0  0.06875  0.66806  0.66659  1.0000
  O   O67       1.0  0.24849  0.25170  0.99722  1.0000
  O   O68       1.0  0.93033  0.59262  0.33236  1.0000
  O   O69       1.0  0.59290  0.92867  0.66670  1.0000
  O   O70       1.0  0.99893  0.73957  0.99979  1.0000
  O   O71       1.0  0.67547  0.06876  0.33253  1.0000
  O   O72       1.0  0.33017  0.41139  0.66943  1.0000
  Si  Si1       1.0  0.00114  0.22678  0.10662  1.0000
  Si  Si2       1.0  0.66936  0.56505  0.43958  1.0000
  Si  Si3       1.0  0.33363  0.89595  0.77118  1.0000
  Si  Si4       1.0  0.77313  0.77304  0.10545  1.0000
  Si  Si5       1.0  0.44185  0.09853  0.43573  1.0000
  Si  Si6       1.0  0.10379  0.44022  0.77426  1.0000
  Si  Si7       1.0  0.22871  0.00074  0.10511  1.0000
  Si  Si8       1.0  0.89417  0.33535  0.43891  1.0000
  Si  Si9       1.0  0.55891  0.66506  0.77252  1.0000
  Si  Si10      1.0  0.77219  0.99885  0.10511  1.0000
  Si  Si11      1.0  0.10341  0.66755  0.77138  1.0000
  Si  Si12      1.0  0.22643  0.22627  0.10419  1.0000
  Si  Si13      1.0  0.89538  0.56278  0.43768  1.0000
  Si  Si14      1.0  0.55951  0.89356  0.77177  1.0000
  Si  Si15      1.0  0.00040  0.77296  0.10498  1.0000
  Si  Si16      1.0  0.67323  0.10009  0.43735  1.0000
  Si  Si17      1.0  0.33103  0.44104  0.77476  1.0000
  Si  Si18      1.0  0.99895  0.77275  0.89464  1.0000
  Si  Si19      1.0  0.66856  0.10390  0.22866  1.0000
  Si  Si20      1.0  0.32891  0.43513  0.56187  1.0000
  Si  Si21      1.0  0.22285  0.22493  0.89100  1.0000
  Si  Si22      1.0  0.89463  0.56033  0.22749  1.0000
  Si  Si23      1.0  0.56264  0.89332  0.56169  1.0000
  Si  Si24      1.0  0.77164  0.99985  0.89417  1.0000
  Si  Si25      1.0  0.43926  0.33103  0.22237  1.0000
  Si  Si26      1.0  0.10469  0.66742  0.56239  1.0000
  Si  Si27      1.0  0.22774  0.00162  0.89347  1.0000
  Si  Si28      1.0  0.89498  0.33394  0.22776  1.0000
  Si  Si29      1.0  0.55961  0.66282  0.56130  1.0000
  Si  Si30      1.0  0.77239  0.77361  0.89427  1.0000
  Si  Si31      1.0  0.44095  0.10937  0.22474  1.0000
  Si  Si32      1.0  0.10426  0.43981  0.56389  1.0000
  Si  Si33      1.0  0.99837  0.22745  0.89400  1.0000
  Si  Si34      1.0  0.66713  0.56167  0.22959  1.0000
  Si  Si35      1.0  0.33444  0.89465  0.56102  1.0000
  Al  Al1       1.0  0.43428  0.33842  0.43539  1.0000
  H   H1        1.0  0.52131  0.25861  0.51437  1.0000
